#\#CIF1.1
##########################################################################
#               Crystallographic Information Format file 
#               Produced by PyCifRW module
# 
#  This is a CIF file.  CIF has been adopted by the International
#  Union of Crystallography as the standard for data archiving and 
#  transmission.
#
#  For information on this file format, follow the CIF links at
#  http://www.iucr.org
##########################################################################

data_pwtools
_cell_length_a                          10.0
_cell_length_b                          10.0
_cell_length_c                          10.0
_cell_angle_alpha                       90.0
_cell_angle_beta                        90.0
_cell_angle_gamma                       90.0
_symmetry_space_group_name_H-M          'P 1'
_symmetry_Int_Tables_number             1
loop_
  _symmetry_equiv_pos_as_xyz
   x,y,z
 
loop_
  _atom_site_label
  _atom_site_fract_x
  _atom_site_fract_y
  _atom_site_fract_z
  _atom_site_type_symbol
   Al  0.0  0.0  0.0  Al
   Al  0.0  0.0  0.5  Al
   Al  0.0  0.5  0.0  Al
   Al  0.0  0.5  0.5  Al
   Al  0.5  0.0  0.0  Al
   Al  0.5  0.0  0.5  Al
   Al  0.5  0.5  0.0  Al
   Al  0.5  0.5  0.5  Al
   N  0.25  0.0  0.0  N
   N  0.25  0.0  0.5  N
   N  0.25  0.5  0.0  N
   N  0.25  0.5  0.5  N
   N  0.75  0.0  0.0  N
   N  0.75  0.0  0.5  N
   N  0.75  0.5  0.0  N
   N  0.75  0.5  0.5  N
   N  0.0  0.25  0.0  N
   N  0.0  0.25  0.5  N
   N  0.0  0.75  0.0  N
   N  0.0  0.75  0.5  N
   N  0.5  0.25  0.0  N
   N  0.5  0.25  0.5  N
   N  0.5  0.75  0.0  N
   N  0.5  0.75  0.5  N
   Al  0.25  0.25  0.0  Al
   Al  0.25  0.25  0.5  Al
   Al  0.25  0.75  0.0  Al
   Al  0.25  0.75  0.5  Al
   Al  0.75  0.25  0.0  Al
   Al  0.75  0.25  0.5  Al
   Al  0.75  0.75  0.0  Al
   Al  0.75  0.75  0.5  Al
   N  0.0  0.0  0.25  N
   N  0.0  0.0  0.75  N
   N  0.0  0.5  0.25  N
   N  0.0  0.5  0.75  N
   N  0.5  0.0  0.25  N
   N  0.5  0.0  0.75  N
   N  0.5  0.5  0.25  N
   N  0.5  0.5  0.75  N
   Al  0.25  0.0  0.25  Al
   Al  0.25  0.0  0.75  Al
   Al  0.25  0.5  0.25  Al
   Al  0.25  0.5  0.75  Al
   Al  0.75  0.0  0.25  Al
   Al  0.75  0.0  0.75  Al
   Al  0.75  0.5  0.25  Al
   Al  0.75  0.5  0.75  Al
   Al  0.0  0.25  0.25  Al
   Al  0.0  0.25  0.75  Al
   Al  0.0  0.75  0.25  Al
   Al  0.0  0.75  0.75  Al
   Al  0.5  0.25  0.25  Al
   Al  0.5  0.25  0.75  Al
   Al  0.5  0.75  0.25  Al
   Al  0.5  0.75  0.75  Al
   N  0.25  0.25  0.25  N
   N  0.25  0.25  0.75  N
   N  0.25  0.75  0.25  N
   N  0.25  0.75  0.75  N
   N  0.75  0.25  0.25  N
   N  0.75  0.25  0.75  N
   N  0.75  0.75  0.25  N
   N  0.75  0.75  0.75  N
 
