#\#CIF1.1
##########################################################################
#               Crystallographic Information Format file 
#               Produced by PyCifRW module
# 
#  This is a CIF file.  CIF has been adopted by the International
#  Union of Crystallography as the standard for data archiving and 
#  transmission.
#
#  For information on this file format, follow the CIF links at
#  http://www.iucr.org
##########################################################################

data_pwtools
_cell_length_a                          10.0
_cell_length_b                          10.0
_cell_length_c                          10.0
_cell_angle_alpha                       90.0
_cell_angle_beta                        90.0
_cell_angle_gamma                       90.0
_symmetry_space_group_name_H-M          'P 1'
_symmetry_Int_Tables_number             1
loop_
  _symmetry_equiv_pos_as_xyz
   x,y,z
 
loop_
  _atom_site_label
  _atom_site_fract_x
  _atom_site_fract_y
  _atom_site_fract_z
  _atom_site_type_symbol
   H  0.550797902575  0.708147822618  0.290904738913  H
   H  0.510827605198  0.892946954348  0.896293088933  H
   H  0.125585310464  0.207242878138  0.0514672033008  H
   H  0.440809843651  0.0298762108786  0.456833224395  H
   H  0.649144047615  0.278487282648  0.67625490198  H
   H  0.590862817416  0.0239818823772  0.558854087991  H
   H  0.259252446907  0.41510119701  0.283525081771  H
   H  0.693137918313  0.440453717671  0.156867738475  H
   H  0.544649018032  0.780314764511  0.306363532376  H
   H  0.221957883932  0.387971257556  0.93638364986  H
   H  0.975995422473  0.672383675913  0.902834108538  H
   H  0.845750871293  0.377994041329  0.0922170088717  H
   H  0.653410902524  0.557840762388  0.361564763063  H
   H  0.22505450484  0.406519916376  0.468940248699  H
   H  0.269235578251  0.291792774225  0.457686399323  H
   H  0.860533912947  0.586252904468  0.283487862432  H
   H  0.277977506624  0.454622075522  0.205410344605  H
   H  0.201378711043  0.514035059817  0.0872293687808  H
   H  0.483585532352  0.362176212388  0.707686621816  H
   H  0.746746223102  0.691092921856  0.689180413755  H
   H  0.373600124149  0.668134804735  0.339848663957  H
   H  0.572793869869  0.325807158065  0.445145049264  H
   H  0.0615289308299  0.242675422184  0.971602606174  H
   H  0.230584204355  0.691477510947  0.650476858214  H
   H  0.723939139437  0.475088610634  0.596663774602  H
   H  0.0669694239328  0.0725621378222  0.198976026297  H
   H  0.151860997009  0.100104344581  0.129293864609  H
   H  0.553277731808  0.187814824924  0.952101243031  H
   H  0.681611778807  0.54101967336  0.707180600808  H
   H  0.263886670953  0.926725684254  0.8391930578  H
   H  0.726319498428  0.480239956085  0.842103185877  H
   H  0.744752323424  0.6603259064  0.913975267006  H
   H  0.633665563788  0.365940584853  0.55284457315  H
   H  0.1963805767  0.192072296394  0.725669623933  H
   H  0.784936703431  0.972098363684  0.850971417042  H
   H  0.543594326596  0.0897908695231  0.488873244616  H
   H  0.927936347562  0.787618199503  0.485094226054  H
   H  0.455279361481  0.217985768409  0.177213380802  H
   H  0.0736236692194  0.892393187587  0.640176616899  H
   H  0.143332317471  0.414126919716  0.0491089243979  H
   H  0.209373349522  0.730708124129  0.651122770442  H
   H  0.478978297377  0.274780505496  0.652223125066  H
   H  0.956449511317  0.435520556175  0.0701325050877  H
   H  0.057731487823  0.0828710187976  0.959707187253  H
   H  0.540760836186  0.83746243267  0.170033544237  H
   H  0.260345072729  0.691977511873  0.895570328142  H
   H  0.34068848446  0.0646731979903  0.864119669411  H
   H  0.290872445829  0.7410824064  0.158033654701  H
   H  0.694963435141  0.841419619031  0.727152078747  H
   H  0.359107524863  0.72668975149  0.139467124182  H
   H  0.313819115233  0.419582756683  0.877212038944  H
   H  0.153740208571  0.880124790249  0.798964319221  H
   H  0.971624297078  0.367702983303  0.204939768908  H
   H  0.240570320335  0.827862801421  0.965228148594  H
   H  0.69880999838  0.482497041774  0.287049764681  H
   H  0.833687884343  0.872179508399  0.0921315918006  H
   H  0.21594947102  0.831761090458  0.848303897079  H
   H  0.314652998764  0.279294596847  0.430815022018  H
   H  0.539446500265  0.0955668150066  0.836912138714  H
   H  0.534734870351  0.774967815041  0.230836265576  H
   H  0.965293351106  0.751027307318  0.343093864392  H
   H  0.94852764696  0.700511778966  0.840561085486  H
   H  0.0454973058559  0.0556415410517  0.74273727355  H
   H  0.304686432948  0.516784365843  0.156262423671  H
   H  0.977952409657  0.502751047674  0.829001078475  H
   H  0.07403779628  0.478915452218  0.0622794804058  H
   H  0.884241431088  0.445810178713  0.0685499182618  H
   H  0.076496282316  0.538792658003  0.0755664045052  H
   H  0.183772318012  0.436357084167  0.497782831018  H
   H  0.583311915242  0.620512681405  0.372811499643  H
   H  0.618736582981  0.157244658385  0.275508475434  H
   H  0.798718270596  0.153089300727  0.223322972886  H
   H  0.242978179694  0.479507304823  0.000745522041898  H
   H  0.0303113605225  0.461548151648  0.162520684867  H
   H  0.679501803773  0.795204587177  0.578163358738  H
   H  0.694764977173  0.390958015734  0.0462962029929  H
   H  0.43942153263  0.371980312209  0.5970032422  H
   H  0.134218169699  0.227712896722  0.814782416527  H
   H  0.26432552664  0.410320204907  0.935972176496  H
   H  0.275552463021  0.145289958854  0.702020129331  H
   H  0.567066550441  0.611593835547  0.0420308509936  H
   H  0.417266894757  0.00426643416716  0.246535468861  H
   H  0.706056183584  0.0615407159207  0.294693498603  H
   H  0.988112752812  0.971222230227  0.48184638868  H
   H  0.735693386528  0.632655774186  0.465693071444  H
   H  0.857066432641  0.172518252166  0.828431922244  H
   H  0.0420695234583  0.866953691813  0.675996587468  H
   H  0.445914109911  0.671570247634  0.460368503889  H
   H  0.780003222379  0.113444083864  0.508157428849  H
   H  0.871489539944  0.927529275812  0.220336331548  H
   H  0.251930302555  0.904012471609  0.345517338715  H
   H  0.0568725740487  0.714886672112  0.414418859153  H
   H  0.735324187495  0.477091633443  0.500565554436  H
   H  0.417561910409  0.290484896035  0.900710867387  H
   H  0.668787577985  0.788832343343  0.895739531093  H
   H  0.250188942389  0.919820613972  0.862605087259  H
   H  0.506085262125  0.567902174144  0.114932238037  H
   H  0.762115840558  0.173225007184  0.533836041006  H
   H  0.126437305229  0.0729170935822  0.609027443761  H
   H  0.491203129616  0.674809934739  0.790854183054  H
 
